*SPEF "IEEE 1481-1998"
*DESIGN "i2c_master"
*DATE "Sun Jun 18 02:54:20 pm 2023"
*VENDOR "Cadence Design Systems"
*PROGRAM "Genus(TM) Synthesis Solution"
*VERSION "19.15-s090_1"
*DESIGN_FLOW "PIN_CAP NONE" "NAME_SCOPE LOCAL"
*DIVIDER /
*DELIMITER :
*BUS_DELIMITER []
*T_UNIT 1 NS
*C_UNIT 1 PF
*R_UNIT 1 OHM
*L_UNIT 1 HENRY
// Interconnect mode: global

*NAME_MAP

*1 clk
*2 reset
*3 start
*4 stop
*5 rw
*6 addr[6]
*7 addr[5]
*8 addr[4]
*9 addr[3]
*10 addr[2]
*11 addr[1]
*12 addr[0]
*13 w_data[7]
*14 w_data[6]
*15 w_data[5]
*16 w_data[4]
*17 w_data[3]
*18 w_data[2]
*19 w_data[1]
*20 w_data[0]
*21 i2c_sda
*22 i2c_scl
*23 count[0]
*24 count[1]
*25 count[2]
*26 current[0]
*27 current[1]
*28 current[2]
*29 current[3]
*30 i2c_scl_enable
*31 next[0]
*32 next[1]
*33 next[2]
*34 next[3]
*35 rc_gclk
*36 rc_gclk_603
*37 i2c_sda
*38 n_0
*39 n_1
*40 n_2
*41 n_3
*42 n_4
*43 n_5
*44 n_7
*45 n_8
*46 n_9
*47 n_10
*48 n_11
*49 n_12
*50 n_13
*51 n_14
*52 n_15
*53 n_16
*54 n_17
*55 n_18
*56 n_19
*57 n_20
*58 n_21
*59 n_22
*60 n_23
*61 n_24
*62 n_25
*63 n_26
*64 n_27
*65 n_28
*66 n_29
*67 n_30
*68 n_31
*69 n_32
*70 n_33
*71 n_34
*72 n_35
*73 n_36
*74 n_37
*75 n_38
*76 n_39
*77 n_40
*78 n_41
*79 n_42
*80 n_43
*81 n_44
*82 n_45
*83 n_46
*84 n_47
*85 n_48
*86 n_49
*87 n_50
*88 n_51
*89 n_52
*90 n_53
*91 n_54
*92 n_55
*93 n_56
*94 n_57
*95 n_61
*96 n_62
*97 n_64
*98 n_65
*99 i2c_scl
*100 w_data[7]
*101 w_data[6]
*102 w_data[5]
*103 w_data[4]
*104 w_data[3]
*105 w_data[2]
*106 w_data[1]
*107 w_data[0]
*108 addr[6]
*109 addr[5]
*110 addr[4]
*111 addr[3]
*112 addr[2]
*113 addr[1]
*114 addr[0]
*115 n_85
*116 n_86
*117 clk
*118 rw
*119 stop
*120 start
*121 reset
*122 n_92
*123 logic_0_1_net
*124 logic_0_2_net
*125 n_95
*126 n_96
*127 n_97
*128 RC_CG_HIER_INST0/RC_CGIC_INST
*129 RC_CG_HIER_INST1/RC_CGIC_INST
*130 g1273__2398
*131 g1274__5107
*132 g1275__6260
*133 g1644__4319
*134 g1645__8428
*135 g1646__5526
*136 g1647__6783
*137 g1648__3680
*138 g1649__1617
*139 next_reg_1
*140 next_reg_0
*141 g1652__2802
*142 g1653__1705
*143 g1654__5122
*144 next_reg_2
*145 next_reg_3
*146 g1657__8246
*147 g1658__7098
*148 g1659__6131
*149 g1660__1881
*150 g1661__5115
*151 g1662__7482
*152 g1663__4733
*153 g1664__6161
*154 g1665__9315
*155 g1666__9945
*156 g1667__2883
*157 g1668__2346
*158 g1669__1666
*159 g1670__7410
*160 g1671__6417
*161 g1672__5477
*162 g1674__2398
*163 g1675__5107
*164 g1676__6260
*165 g1677__4319
*166 g1678__8428
*167 g1679__5526
*168 g1680__6783
*169 g1681__3680
*170 g1682__1617
*171 g1683__2802
*172 g1684__1705
*173 g1685__5122
*174 g1686__8246
*175 g1687
*176 g1688__7098
*177 g1689__6131
*178 g1690__1881
*179 g1691__5115
*180 g1692__7482
*181 g1693
*182 g1694
*183 g1695
*184 g1696__4733
*185 g1697__6161
*186 g1698__9315
*187 g1699__9945
*188 g1700__2883
*189 count_reg_2
*190 count_reg_1
*191 g1296__1666
*192 g1297__7410
*193 g1302__6417
*194 g1303__5477
*195 g1304
*196 g1305
*197 current_reg_2
*198 current_reg_0
*199 count_reg_0
*200 current_reg_3
*201 current_reg_1
*202 g2
*203 tie_0_cell
*204 tie_0_cell1
*205 cdn_loop_breaker
*206 cdn_loop_breaker1716
*207 cdn_loop_breaker1717

*PORTS

*1 I
*2 I
*3 I
*4 I
*5 I
*6 I
*7 I
*8 I
*9 I
*10 I
*11 I
*12 I
*13 I
*14 I
*15 I
*16 I
*17 I
*18 I
*19 I
*20 I
*21 B
*22 O

*D_NET *23 0.017400

*CONN
*I *192:C I *L 0.0038 *D ON22HDX0
*I *186:A I *L 0.0075 *D NO2HDX1
*I *146:B I *L 0.0034 *D AO321HDX0
*I *178:A I *L 0.0061 *D NA2HDX1
*I *199:Q O *L 0.0001 *D DFRHDX1

*CAP
1 *192:C 0.0043
2 *186:A 0.0043
3 *146:B 0.0044
4 *178:A 0.0044

*RES
1 *199:Q *192:C 0
2 *199:Q *186:A 8.547008547
3 *199:Q *146:B 0
4 *199:Q *178:A 0
*END

*D_NET *24 0.020900

*CONN
*I *186:B I *L 0.0066 *D NO2HDX1
*I *178:B I *L 0.0055 *D NA2HDX1
*I *177:B I *L 0.0066 *D NO2HDX1
*I *136:A I *L 0.0062 *D AN33HDX1
*I *146:C I *L 0.0034 *D AO321HDX0
*I *190:Q O *L 0.0001 *D DFRQHDX1

*CAP
1 *186:B 0.0041
2 *178:B 0.0042
3 *177:B 0.0042
4 *136:A 0.0042
5 *146:C 0.0042

*RES
1 *190:Q *186:B 0
2 *190:Q *178:B 0
3 *190:Q *177:B 0
4 *190:Q *136:A 0
5 *190:Q *146:C 0
*END

*D_NET *25 0.034700

*CONN
*I *193:B I *L 0.0055 *D NA2HDX1
*I *173:S I *L 0.0078 *D MU2HDX0
*I *172:BN I *L 0.0037 *D NA3I2HDX1
*I *171:BN I *L 0.0037 *D NA3I2HDX1
*I *168:S I *L 0.0078 *D MU2HDX0
*I *167:B I *L 0.0066 *D NO2HDX1
*I *164:AN I *L 0.0038 *D NA2I1HDX1
*I *136:D I *L 0.0072 *D AN33HDX1
*I *137:A I *L 0.0027 *D AN321HDX0
*I *189:Q O *L 0.0001 *D DFRQHDX1

*CAP
1 *193:B 0.0038
2 *173:S 0.0038
3 *172:BN 0.0038
4 *171:BN 0.0038
5 *168:S 0.0039
6 *167:B 0.0039
7 *164:AN 0.0039
8 *136:D 0.0039
9 *137:A 0.0039

*RES
1 *189:Q *193:B 0
2 *189:Q *173:S 0
3 *189:Q *172:BN 0
4 *189:Q *171:BN 0
5 *189:Q *168:S 0
6 *189:Q *167:B 0
7 *189:Q *164:AN 0
8 *189:Q *136:D 0
9 *189:Q *137:A 0
*END

*D_NET *26 0.038200

*CONN
*I *192:B I *L 0.0038 *D ON22HDX0
*I *187:A I *L 0.0061 *D NA2HDX1
*I *180:A I *L 0.0075 *D NO2HDX1
*I *169:B I *L 0.0055 *D NA3I1HDX1
*I *165:B I *L 0.0066 *D NO2HDX1
*I *159:B I *L 0.0063 *D AN22HDX1
*I *157:C I *L 0.0036 *D ON32HDX0
*I *135:A I *L 0.0036 *D ON32HDX0
*I *156:B I *L 0.0055 *D NA2HDX1
*I *131:B I *L 0.0066 *D NO2I1HDX1
*I *198:Q O *L 0.0001 *D DFRRHDX1

*CAP
1 *192:B 0.0039
2 *187:A 0.0039
3 *180:A 0.0038
4 *169:B 0.0038
5 *165:B 0.0038
6 *159:B 0.0038
7 *157:C 0.0038
8 *135:A 0.0038
9 *156:B 0.0038
10 *131:B 0.0038

*RES
1 *198:Q *192:B 0
2 *198:Q *187:A 0
3 *198:Q *180:A 0
4 *198:Q *169:B 0
5 *198:Q *165:B 0
6 *198:Q *159:B 0
7 *198:Q *157:C 0
8 *198:Q *135:A 0
9 *198:Q *156:B 0
10 *198:Q *131:B 0
*END

*D_NET *27 0.034700

*CONN
*I *194:AN I *L 0.0038 *D NA2I1HDX1
*I *192:A I *L 0.0043 *D ON22HDX0
*I *185:B I *L 0.0055 *D NA2HDX1
*I *160:A I *L 0.0043 *D ON22HDX0
*I *159:D I *L 0.0071 *D AN22HDX1
*I *157:A I *L 0.0036 *D ON32HDX0
*I *143:A I *L 0.0040 *D ON211HDX0
*I *154:B I *L 0.0070 *D NA22HDX1
*I *132:A I *L 0.0039 *D OR2HDX1
*I *201:Q O *L 0.0001 *D DFRRHDX1

*CAP
1 *194:AN 0.0038
2 *192:A 0.0038
3 *185:B 0.0038
4 *160:A 0.0038
5 *159:D 0.0039
6 *157:A 0.0039
7 *143:A 0.0039
8 *154:B 0.0039
9 *132:A 0.0039

*RES
1 *201:Q *194:AN 0
2 *201:Q *192:A 0
3 *201:Q *185:B 0
4 *201:Q *160:A 0
5 *201:Q *159:D 0
6 *201:Q *157:A 0
7 *201:Q *143:A 0
8 *201:Q *154:B 0
9 *201:Q *132:A 0
*END

*D_NET *28 0.027800

*CONN
*I *187:B I *L 0.0055 *D NA2HDX1
*I *184:A I *L 0.0061 *D NA2HDX1
*I *180:B I *L 0.0066 *D NO2HDX1
*I *179:B I *L 0.0066 *D NO2HDX1
*I *141:B I *L 0.0062 *D AN21HDX1
*I *161:B I *L 0.0041 *D AO32HDX1
*I *132:B I *L 0.0038 *D OR2HDX1
*I *197:Q O *L 0.0001 *D DFRRHDX1

*CAP
1 *187:B 0.0039
2 *184:A 0.0039
3 *180:B 0.004
4 *179:B 0.004
5 *141:B 0.004
6 *161:B 0.004
7 *132:B 0.004

*RES
1 *197:Q *187:B 0
2 *197:Q *184:A 0
3 *197:Q *180:B 0
4 *197:Q *179:B 0
5 *197:Q *141:B 0
6 *197:Q *161:B 0
7 *197:Q *132:B 0
*END

*D_NET *29 0.007100

*CONN
*I *131:AN I *L 0.0035 *D NO2I1HDX1
*I *200:Q O *L 0.0001 *D DFRRHDX1

*CAP
1 *131:AN 0.0071

*RES
1 *200:Q *131:AN 9.345794393
*END

*D_NET *30 0.007100

*CONN
*I *176:A I *L 0.0061 *D NA2HDX1
*I *130:Q O *L 0.0001 *D NO22HDX0

*CAP
1 *176:A 0.0071

*RES
1 *130:Q *176:A 7.633587786
*END

*D_NET *31 0.007100

*CONN
*I *198:D I *L 0.0044 *D DFRRHDX1
*I *140:Q O *L 0.0001 *D DFRQHDX1

*CAP
1 *198:D 0.0071

*RES
1 *140:Q *198:D 8.695652174
*END

*D_NET *32 0.007100

*CONN
*I *201:D I *L 0.0044 *D DFRRHDX1
*I *139:Q O *L 0.0001 *D DFRQHDX1

*CAP
1 *201:D 0.0071

*RES
1 *139:Q *201:D 8.695652174
*END

*D_NET *33 0.007100

*CONN
*I *197:D I *L 0.0044 *D DFRRHDX1
*I *144:Q O *L 0.0001 *D DFRQHDX1

*CAP
1 *197:D 0.0071

*RES
1 *144:Q *197:D 8.695652174
*END

*D_NET *34 0.007100

*CONN
*I *200:D I *L 0.0044 *D DFRRHDX1
*I *145:Q O *L 0.0001 *D DFRQHDX1

*CAP
1 *200:D 0.0071

*RES
1 *145:Q *200:D 8.695652174
*END

*D_NET *35 0.000000

*CONN
*I *199:C I *L 0.0044 *D DFRHDX1
*I *189:C I *L 0.0044 *D DFRQHDX1
*I *190:C I *L 0.0044 *D DFRQHDX1
*I *128:GCLK O *L 0.0001 *D LSGCPHDX0

*CAP
1 *199:C 0
2 *189:C 0
3 *190:C 0

*RES
1 *128:GCLK *199:C 0
2 *128:GCLK *189:C 0
3 *128:GCLK *190:C 0
*END

*D_NET *36 0.000000

*CONN
*I *140:C I *L 0.0044 *D DFRQHDX1
*I *139:C I *L 0.0044 *D DFRQHDX1
*I *144:C I *L 0.0044 *D DFRQHDX1
*I *145:C I *L 0.0044 *D DFRQHDX1
*I *129:GCLK O *L 0.0001 *D LSGCPHDX0

*CAP
1 *140:C 0
2 *139:C 0
3 *144:C 0
4 *145:C 0

*RES
1 *129:GCLK *140:C 0
2 *129:GCLK *139:C 0
3 *129:GCLK *144:C 0
4 *129:GCLK *145:C 0
*END

*D_NET *37 0.017400

*CONN
*I *207:A I *L 0.0041 *D BUHDX1
*I *206:A I *L 0.0041 *D BUHDX1
*I *205:A I *L 0.0041 *D BUHDX1
*P *21 B
*I *133:Q O *L 0.0001 *D NA3I2HDX1

*CAP
1 *21 0.0043
2 *207:A 0.0043
3 *206:A 0.0044
4 *205:A 0.0044

*RES
1 *133:Q *21 0
2 *133:Q *207:A 0
3 *133:Q *206:A 0
4 *133:Q *205:A 0
*END

*D_NET *38 0.000000

*CONN
*I *201:RN I *L 0.0090 *D DFRRHDX1
*I *200:RN I *L 0.0090 *D DFRRHDX1
*I *198:RN I *L 0.0090 *D DFRRHDX1
*I *197:RN I *L 0.0090 *D DFRRHDX1
*I *196:Q O *L 0.0001 *D INHDX1

*CAP
1 *201:RN 0
2 *200:RN 0
3 *198:RN 0
4 *197:RN 0

*RES
1 *196:Q *201:RN 0
2 *196:Q *200:RN 0
3 *196:Q *198:RN 0
4 *196:Q *197:RN 0
*END

*D_NET *39 0.007100

*CONN
*I *192:D I *L 0.0033 *D ON22HDX0
*I *195:Q O *L 0.0001 *D INHDX1

*CAP
1 *192:D 0.0071

*RES
1 *195:Q *192:D 9.708737864
*END

*D_NET *40 0.007100

*CONN
*I *202:C I *L 0.0053 *D NA3I1HDX1
*I *193:Q O *L 0.0001 *D NA2HDX1

*CAP
1 *202:C 0.0071

*RES
1 *193:Q *202:C 8.064516129
*END

*D_NET *41 0.010500

*CONN
*I *202:B I *L 0.0055 *D NA3I1HDX1
*I *191:A I *L 0.0061 *D NA3HDX1
*I *194:Q O *L 0.0001 *D NA2I1HDX1

*CAP
1 *202:B 0.0052
2 *191:A 0.0053

*RES
1 *194:Q *202:B 9.345794393
2 *194:Q *191:A 8.849557522
*END

*D_NET *42 0.007100

*CONN
*I *199:D I *L 0.0034 *D DFRHDX1
*I *192:Q O *L 0.0001 *D ON22HDX0

*CAP
1 *199:D 0.0071

*RES
1 *192:Q *199:D 9.523809524
*END

*D_NET *43 0.007100

*CONN
*I *190:D I *L 0.0034 *D DFRQHDX1
*I *191:Q O *L 0.0001 *D NA3HDX1

*CAP
1 *190:D 0.0071

*RES
1 *191:Q *190:D 9.523809524
*END

*D_NET *44 0.014000

*CONN
*I *188:A I *L 0.0061 *D NA2HDX1
*I *157:D I *L 0.0039 *D ON32HDX0
*I *184:B I *L 0.0055 *D NA2HDX1
*I *201:QN O *L 0.0001 *D DFRRHDX1

*CAP
1 *188:A 0.0046
2 *157:D 0.0047
3 *184:B 0.0047

*RES
1 *201:QN *188:A 9.433962264
2 *201:QN *157:D 0
3 *201:QN *184:B 9.803921569
*END

*D_NET *45 0.027800

*CONN
*I *188:B I *L 0.0055 *D NA2HDX1
*I *185:A I *L 0.0061 *D NA2HDX1
*I *170:B I *L 0.0062 *D AN21HDX1
*I *166:B I *L 0.0040 *D AND2HDX1
*I *160:C I *L 0.0038 *D ON22HDX0
*I *142:B I *L 0.0035 *D AO211HDX0
*I *157:B I *L 0.0037 *D ON32HDX0
*I *200:QN O *L 0.0001 *D DFRRHDX1

*CAP
1 *188:B 0.0039
2 *185:A 0.0039
3 *170:B 0.004
4 *166:B 0.004
5 *160:C 0.004
6 *142:B 0.004
7 *157:B 0.004

*RES
1 *200:QN *188:B 0
2 *200:QN *185:A 0
3 *200:QN *170:B 0
4 *200:QN *166:B 0
5 *200:QN *160:C 0
6 *200:QN *142:B 0
7 *200:QN *157:B 0
*END

*D_NET *46 0.010500

*CONN
*I *136:B I *L 0.0066 *D AN33HDX1
*I *177:A I *L 0.0075 *D NO2HDX1
*I *199:QN O *L 0.0001 *D DFRHDX1

*CAP
1 *136:B 0.0052
2 *177:A 0.0053

*RES
1 *199:QN *136:B 8.620689655
2 *199:QN *177:A 7.874015748
*END

*D_NET *47 0.014000

*CONN
*I *179:A I *L 0.0075 *D NO2HDX1
*I *161:C I *L 0.0040 *D AO32HDX1
*I *170:A I *L 0.0068 *D AN21HDX1
*I *198:QN O *L 0.0001 *D DFRRHDX1

*CAP
1 *179:A 0.0046
2 *161:C 0.0047
3 *170:A 0.0047

*RES
1 *198:QN *179:A 8.333333333
2 *198:QN *161:C 0
3 *198:QN *170:A 8.849557522
*END

*D_NET *48 0.007100

*CONN
*I *157:E I *L 0.0039 *D ON32HDX0
*I *197:QN O *L 0.0001 *D DFRRHDX1

*CAP
1 *157:E 0.0071

*RES
1 *197:QN *157:E 9.174311927
*END

*D_NET *49 0.010500

*CONN
*I *159:A I *L 0.0068 *D AN22HDX1
*I *170:C I *L 0.0073 *D AN21HDX1
*I *183:Q O *L 0.0001 *D INHDX1

*CAP
1 *159:A 0.0052
2 *170:C 0.0053

*RES
1 *183:Q *159:A 8.474576271
2 *183:Q *170:C 8
*END

*D_NET *50 0.020900

*CONN
*I *174:B I *L 0.0066 *D NO2HDX1
*I *165:A I *L 0.0075 *D NO2HDX1
*I *135:D I *L 0.0039 *D ON32HDX0
*I *155:A I *L 0.0071 *D ON21HDX1
*I *183:A I *L 0.0063 *D INHDX1
*I *188:Q O *L 0.0001 *D NA2HDX1

*CAP
1 *174:B 0.0041
2 *165:A 0.0042
3 *135:D 0.0042
4 *155:A 0.0042
5 *183:A 0.0042

*RES
1 *188:Q *174:B 0
2 *188:Q *165:A 8.620689655
3 *188:Q *135:D 0
4 *188:Q *155:A 8.928571429
5 *188:Q *183:A 0
*END

*D_NET *51 0.007100

*CONN
*I *161:E I *L 0.0048 *D AO32HDX1
*I *182:Q O *L 0.0001 *D INHDX1

*CAP
1 *161:E 0.0071

*RES
1 *182:Q *161:E 8.403361345
*END

*D_NET *52 0.014000

*CONN
*I *158:B I *L 0.0031 *D AO22HDX0
*I *163:A I *L 0.0036 *D AND2HDX1
*I *181:A I *L 0.0063 *D INHDX1
*I *186:Q O *L 0.0001 *D NO2HDX1

*CAP
1 *158:B 0.0046
2 *163:A 0.0047
3 *181:A 0.0047

*RES
1 *186:Q *158:B 0
2 *186:Q *163:A 0
3 *186:Q *181:A 9.259259259
*END

*D_NET *53 0.014000

*CONN
*I *169:AN I *L 0.0038 *D NA3I1HDX1
*I *134:C I *L 0.0039 *D ON221HDX0
*I *135:B I *L 0.0037 *D ON32HDX0
*I *185:Q O *L 0.0001 *D NA2HDX1

*CAP
1 *169:AN 0.0046
2 *134:C 0.0047
3 *135:B 0.0047

*RES
1 *185:Q *169:AN 0
2 *185:Q *134:C 0
3 *185:Q *135:B 0
*END

*D_NET *54 0.014000

*CONN
*I *162:AN I *L 0.0038 *D NA2I1HDX1
*I *148:B I *L 0.0034 *D ON211HDX0
*I *154:C I *L 0.0069 *D NA22HDX1
*I *184:Q O *L 0.0001 *D NA2HDX1

*CAP
1 *162:AN 0.0046
2 *148:B 0.0047
3 *154:C 0.0047

*RES
1 *184:Q *162:AN 0
2 *184:Q *148:B 0
3 *184:Q *154:C 8.695652174
*END

*D_NET *55 0.007100

*CONN
*I *160:B I *L 0.0038 *D ON22HDX0
*I *175:Q O *L 0.0001 *D INHDX1

*CAP
1 *160:B 0.0071

*RES
1 *175:Q *160:B 9.345794393
*END

*D_NET *56 0.017400

*CONN
*I *166:A I *L 0.0036 *D AND2HDX1
*I *155:C I *L 0.0062 *D ON21HDX1
*I *159:C I *L 0.0078 *D AN22HDX1
*I *175:A I *L 0.0063 *D INHDX1
*I *180:Q O *L 0.0001 *D NO2HDX1

*CAP
1 *166:A 0.0043
2 *155:C 0.0043
3 *159:C 0.0044
4 *175:A 0.0044

*RES
1 *180:Q *166:A 0
2 *180:Q *155:C 9.523809524
3 *180:Q *159:C 8.333333333
4 *180:Q *175:A 0
*END

*D_NET *57 0.017400

*CONN
*I *154:A I *L 0.0072 *D NA22HDX1
*I *147:A I *L 0.0068 *D AN21HDX1
*I *141:C I *L 0.0073 *D AN21HDX1
*I *142:A I *L 0.0039 *D AO211HDX0
*I *179:Q O *L 0.0001 *D NO2HDX1

*CAP
1 *154:A 0.0043
2 *147:A 0.0043
3 *141:C 0.0044
4 *142:A 0.0044

*RES
1 *179:Q *154:A 8.547008547
2 *179:Q *147:A 9.174311927
3 *179:Q *141:C 8.620689655
4 *179:Q *142:A 0
*END

*D_NET *58 0.014000

*CONN
*I *164:B I *L 0.0055 *D NA2I1HDX1
*I *146:E I *L 0.0034 *D AO321HDX0
*I *158:C I *L 0.0038 *D AO22HDX0
*I *177:Q O *L 0.0001 *D NO2HDX1

*CAP
1 *164:B 0.0046
2 *146:E 0.0047
3 *158:C 0.0047

*RES
1 *177:Q *164:B 9.900990099
2 *177:Q *146:E 0
3 *177:Q *158:C 0
*END

*D_NET *59 0.007100

*CONN
*I *153:D I *L 0.0042 *D AO22HDX1
*I *173:Q O *L 0.0001 *D MU2HDX0

*CAP
1 *153:D 0.0071

*RES
1 *173:Q *153:D 8.849557522
*END

*D_NET *60 0.007100

*CONN
*I *149:C I *L 0.0069 *D NA22HDX1
*I *172:Q O *L 0.0001 *D NA3I2HDX1

*CAP
1 *149:C 0.0071

*RES
1 *172:Q *149:C 7.194244604
*END

*D_NET *61 0.007100

*CONN
*I *150:C I *L 0.0069 *D NA22HDX1
*I *171:Q O *L 0.0001 *D NA3I2HDX1

*CAP
1 *150:C 0.0071

*RES
1 *171:Q *150:C 7.194244604
*END

*D_NET *62 0.007100

*CONN
*I *151:B I *L 0.0034 *D ON211HDX0
*I *170:Q O *L 0.0001 *D AN21HDX1

*CAP
1 *151:B 0.0071

*RES
1 *170:Q *151:B 9.615384615
*END

*D_NET *63 0.007100

*CONN
*I *151:C I *L 0.0033 *D ON211HDX0
*I *169:Q O *L 0.0001 *D NA3I1HDX1

*CAP
1 *151:C 0.0071

*RES
1 *169:Q *151:C 9.708737864
*END

*D_NET *64 0.007100

*CONN
*I *153:B I *L 0.0030 *D AO22HDX1
*I *168:Q O *L 0.0001 *D MU2HDX0

*CAP
1 *153:B 0.0071

*RES
1 *168:Q *153:B 9.803921569
*END

*D_NET *65 0.017400

*CONN
*I *153:A I *L 0.0032 *D AO22HDX1
*I *152:A I *L 0.0068 *D AN22HDX1
*I *136:E I *L 0.0073 *D AN33HDX1
*I *138:B I *L 0.0030 *D AO22HDX1
*I *174:Q O *L 0.0001 *D NO2HDX1

*CAP
1 *153:A 0.0043
2 *152:A 0.0043
3 *136:E 0.0044
4 *138:B 0.0044

*RES
1 *174:Q *153:A 0
2 *174:Q *152:A 9.174311927
3 *174:Q *136:E 8.620689655
4 *174:Q *138:B 0
*END

*D_NET *66 0.007100

*CONN
*I *146:F I *L 0.0041 *D AO321HDX0
*I *163:Q O *L 0.0001 *D AND2HDX1

*CAP
1 *146:F 0.0071

*RES
1 *163:Q *146:F 8.849557522
*END

*D_NET *67 0.007100

*CONN
*I *143:D I *L 0.0035 *D ON211HDX0
*I *162:Q O *L 0.0001 *D NA2I1HDX1

*CAP
1 *143:D 0.0071

*RES
1 *162:Q *143:D 9.433962264
*END

*D_NET *68 0.020900

*CONN
*I *202:AN I *L 0.0038 *D NA3I1HDX1
*I *156:A I *L 0.0061 *D NA2HDX1
*I *150:A I *L 0.0072 *D NA22HDX1
*I *135:C I *L 0.0036 *D ON32HDX0
*I *149:A I *L 0.0072 *D NA22HDX1
*I *167:Q O *L 0.0001 *D NO2HDX1

*CAP
1 *202:AN 0.0041
2 *156:A 0.0042
3 *150:A 0.0042
4 *135:C 0.0042
5 *149:A 0.0042

*RES
1 *167:Q *202:AN 0
2 *167:Q *156:A 0
3 *167:Q *150:A 8.620689655
4 *167:Q *135:C 0
5 *167:Q *149:A 8.620689655
*END

*D_NET *69 0.017400

*CONN
*I *153:C I *L 0.0040 *D AO22HDX1
*I *152:C I *L 0.0078 *D AN22HDX1
*I *137:C I *L 0.0031 *D AN321HDX0
*I *138:D I *L 0.0042 *D AO22HDX1
*I *166:Q O *L 0.0001 *D AND2HDX1

*CAP
1 *153:C 0.0043
2 *152:C 0.0043
3 *137:C 0.0044
4 *138:D 0.0044

*RES
1 *166:Q *153:C 0
2 *166:Q *152:C 8.403361345
3 *166:Q *137:C 0
4 *166:Q *138:D 0
*END

*D_NET *70 0.010500

*CONN
*I *142:C I *L 0.0035 *D AO211HDX0
*I *137:E I *L 0.0031 *D AN321HDX0
*I *165:Q O *L 0.0001 *D NO2HDX1

*CAP
1 *142:C 0.0052
2 *137:E 0.0053

*RES
1 *165:Q *142:C 11.36363636
2 *165:Q *137:E 0
*END

*D_NET *71 0.010500

*CONN
*I *134:B I *L 0.0036 *D ON221HDX0
*I *151:A I *L 0.0040 *D ON211HDX0
*I *164:Q O *L 0.0001 *D NA2I1HDX1

*CAP
1 *134:B 0.0052
2 *151:A 0.0053

*RES
1 *164:Q *134:B 11.36363636
2 *164:Q *151:A 10.75268817
*END

*D_NET *72 0.007100

*CONN
*I *147:C I *L 0.0073 *D AN21HDX1
*I *161:Q O *L 0.0001 *D AO32HDX1

*CAP
1 *147:C 0.0071

*RES
1 *161:Q *147:C 6.993006993
*END

*D_NET *73 0.007100

*CONN
*I *137:F I *L 0.0038 *D AN321HDX0
*I *160:Q O *L 0.0001 *D ON22HDX0

*CAP
1 *137:F 0.0071

*RES
1 *160:Q *137:F 9.174311927
*END

*D_NET *74 0.007100

*CONN
*I *143:C I *L 0.0033 *D ON211HDX0
*I *159:Q O *L 0.0001 *D AN22HDX1

*CAP
1 *143:C 0.0071

*RES
1 *159:Q *143:C 9.708737864
*END

*D_NET *75 0.007100

*CONN
*I *137:B I *L 0.0029 *D AN321HDX0
*I *158:Q O *L 0.0001 *D AO22HDX0

*CAP
1 *137:B 0.0071

*RES
1 *158:Q *137:B 10.1010101
*END

*D_NET *76 0.007100

*CONN
*I *145:D I *L 0.0034 *D DFRQHDX1
*I *157:Q O *L 0.0001 *D ON32HDX0

*CAP
1 *145:D 0.0071

*RES
1 *157:Q *145:D 9.523809524
*END

*D_NET *77 0.007100

*CONN
*I *141:A I *L 0.0068 *D AN21HDX1
*I *156:Q O *L 0.0001 *D NA2HDX1

*CAP
1 *141:A 0.0071

*RES
1 *156:Q *141:A 7.299270073
*END

*D_NET *78 0.007100

*CONN
*I *148:C I *L 0.0033 *D ON211HDX0
*I *155:Q O *L 0.0001 *D ON21HDX1

*CAP
1 *148:C 0.0071

*RES
1 *155:Q *148:C 9.708737864
*END

*D_NET *79 0.007100

*CONN
*I *144:D I *L 0.0034 *D DFRQHDX1
*I *154:Q O *L 0.0001 *D NA22HDX1

*CAP
1 *144:D 0.0071

*RES
1 *154:Q *144:D 9.523809524
*END

*D_NET *80 0.007100

*CONN
*I *136:C I *L 0.0067 *D AN33HDX1
*I *153:Q O *L 0.0001 *D AO22HDX1

*CAP
1 *136:C 0.0071

*RES
1 *153:Q *136:C 7.407407407
*END

*D_NET *81 0.007100

*CONN
*I *134:A I *L 0.0033 *D ON221HDX0
*I *152:Q O *L 0.0001 *D AN22HDX1

*CAP
1 *134:A 0.0071

*RES
1 *152:Q *134:A 9.708737864
*END

*D_NET *82 0.007100

*CONN
*I *142:D I *L 0.0040 *D AO211HDX0
*I *151:Q O *L 0.0001 *D ON211HDX0

*CAP
1 *142:D 0.0071

*RES
1 *151:Q *142:D 9.009009009
*END

*D_NET *83 0.007100

*CONN
*I *138:C I *L 0.0040 *D AO22HDX1
*I *150:Q O *L 0.0001 *D NA22HDX1

*CAP
1 *138:C 0.0071

*RES
1 *150:Q *138:C 8.928571429
*END

*D_NET *84 0.007100

*CONN
*I *138:A I *L 0.0032 *D AO22HDX1
*I *149:Q O *L 0.0001 *D NA22HDX1

*CAP
1 *138:A 0.0071

*RES
1 *149:Q *138:A 9.615384615
*END

*D_NET *85 0.007100

*CONN
*I *140:D I *L 0.0034 *D DFRQHDX1
*I *148:Q O *L 0.0001 *D ON211HDX0

*CAP
1 *140:D 0.0071

*RES
1 *148:Q *140:D 9.523809524
*END

*D_NET *86 0.007100

*CONN
*I *134:D I *L 0.0037 *D ON221HDX0
*I *147:Q O *L 0.0001 *D AN21HDX1

*CAP
1 *134:D 0.0071

*RES
1 *147:Q *134:D 9.345794393
*END

*D_NET *87 0.007100

*CONN
*I *136:F I *L 0.0073 *D AN33HDX1
*I *146:Q O *L 0.0001 *D AO321HDX0

*CAP
1 *136:F 0.0071

*RES
1 *146:Q *136:F 7.042253521
*END

*D_NET *88 0.007100

*CONN
*I *139:D I *L 0.0034 *D DFRQHDX1
*I *143:Q O *L 0.0001 *D ON211HDX0

*CAP
1 *139:D 0.0071

*RES
1 *143:Q *139:D 9.523809524
*END

*D_NET *89 0.007100

*CONN
*I *135:E I *L 0.0039 *D ON32HDX0
*I *141:Q O *L 0.0001 *D AN21HDX1

*CAP
1 *135:E 0.0071

*RES
1 *141:Q *135:E 9.174311927
*END

*D_NET *90 0.007100

*CONN
*I *133:BN I *L 0.0037 *D NA3I2HDX1
*I *138:Q O *L 0.0001 *D AO22HDX1

*CAP
1 *133:BN 0.0071

*RES
1 *138:Q *133:BN 9.174311927
*END

*D_NET *91 0.007100

*CONN
*I *134:E I *L 0.0035 *D ON221HDX0
*I *137:Q O *L 0.0001 *D AN321HDX0

*CAP
1 *134:E 0.0071

*RES
1 *137:Q *134:E 9.523809524
*END

*D_NET *92 0.007100

*CONN
*I *133:C I *L 0.0054 *D NA3I2HDX1
*I *136:Q O *L 0.0001 *D AN33HDX1

*CAP
1 *133:C 0.0071

*RES
1 *136:Q *133:C 8
*END

*D_NET *93 0.007100

*CONN
*I *133:AN I *L 0.0039 *D NA3I2HDX1
*I *134:Q O *L 0.0001 *D ON221HDX0

*CAP
1 *133:AN 0.0071

*RES
1 *134:Q *133:AN 9.009009009
*END

*D_NET *94 0.007100

*CONN
*I *130:B I *L 0.0039 *D NO22HDX0
*I *131:Q O *L 0.0001 *D NO2I1HDX1

*CAP
1 *130:B 0.0071

*RES
1 *131:Q *130:B 9.009009009
*END

*D_NET *95 0.014000

*CONN
*I *191:C I *L 0.0053 *D NA3HDX1
*I *171:AN I *L 0.0039 *D NA3I2HDX1
*I *172:AN I *L 0.0039 *D NA3I2HDX1
*I *178:Q O *L 0.0001 *D NA2HDX1

*CAP
1 *191:C 0.0046
2 *171:AN 0.0047
3 *172:AN 0.0047

*RES
1 *178:Q *191:C 0
2 *178:Q *171:AN 0
3 *178:Q *172:AN 0
*END

*D_NET *96 0.020900

*CONN
*I *194:B I *L 0.0055 *D NA2I1HDX1
*I *182:A I *L 0.0063 *D INHDX1
*I *143:B I *L 0.0034 *D ON211HDX0
*I *148:D I *L 0.0035 *D ON211HDX0
*I *174:A I *L 0.0075 *D NO2HDX1
*I *187:Q O *L 0.0001 *D NA2HDX1

*CAP
1 *194:B 0.0041
2 *182:A 0.0042
3 *143:B 0.0042
4 *148:D 0.0042
5 *174:A 0.0042

*RES
1 *187:Q *194:B 0
2 *187:Q *182:A 0
3 *187:Q *143:B 0
4 *187:Q *148:D 0
5 *187:Q *174:A 8.620689655
*END

*D_NET *97 0.014000

*CONN
*I *191:B I *L 0.0056 *D NA3HDX1
*I *193:A I *L 0.0061 *D NA2HDX1
*I *167:A I *L 0.0075 *D NO2HDX1
*I *181:Q O *L 0.0001 *D INHDX1

*CAP
1 *191:B 0.0046
2 *193:A 0.0047
3 *167:A 0.0047

*RES
1 *181:Q *191:B 9.803921569
2 *181:Q *193:A 9.345794393
3 *181:Q *167:A 8.26446281
*END

*D_NET *98 0.017400

*CONN
*I *195:A I *L 0.0063 *D INHDX1
*I *151:D I *L 0.0035 *D ON211HDX0
*I *160:D I *L 0.0033 *D ON22HDX0
*I *130:A I *L 0.0040 *D NO22HDX0
*I *132:Q O *L 0.0001 *D OR2HDX1

*CAP
1 *195:A 0.0043
2 *151:D 0.0043
3 *160:D 0.0044
4 *130:A 0.0044

*RES
1 *132:Q *195:A 0
2 *132:Q *151:D 0
3 *132:Q *160:D 0
4 *132:Q *130:A 0
*END

*D_NET *99 0.007100

*CONN
*P *22 O
*I *176:Q O *L 0.0001 *D NA2HDX1

*CAP
1 *22 0.0071

*RES
1 *176:Q *22 14.08450704
*END

*D_NET *100 0.007100

*CONN
*I *146:A I *L 0.0037 *D AO321HDX0
*P *13 I

*CAP
1 *146:A 0.0071

*RES
1 *13 *146:A 9.174311927
*END

*D_NET *101 0.007100

*CONN
*I *168:IN1 I *L 0.0039 *D MU2HDX0
*P *14 I

*CAP
1 *168:IN1 0.0071

*RES
1 *14 *168:IN1 9.009009009
*END

*D_NET *102 0.007100

*CONN
*I *146:D I *L 0.0035 *D AO321HDX0
*P *15 I

*CAP
1 *146:D 0.0071

*RES
1 *15 *146:D 9.345794393
*END

*D_NET *103 0.007100

*CONN
*I *163:B I *L 0.0040 *D AND2HDX1
*P *16 I

*CAP
1 *163:B 0.0071

*RES
1 *16 *163:B 9.009009009
*END

*D_NET *104 0.007100

*CONN
*I *172:C I *L 0.0054 *D NA3I2HDX1
*P *17 I

*CAP
1 *172:C 0.0071

*RES
1 *17 *172:C 8
*END

*D_NET *105 0.007100

*CONN
*I *168:IN0 I *L 0.0033 *D MU2HDX0
*P *18 I

*CAP
1 *168:IN0 0.0071

*RES
1 *18 *168:IN0 9.523809524
*END

*D_NET *106 0.007100

*CONN
*I *152:B I *L 0.0063 *D AN22HDX1
*P *19 I

*CAP
1 *152:B 0.0071

*RES
1 *19 *152:B 7.575757576
*END

*D_NET *107 0.007100

*CONN
*I *149:B I *L 0.0070 *D NA22HDX1
*P *20 I

*CAP
1 *149:B 0.0071

*RES
1 *20 *149:B 7.042253521
*END

*D_NET *108 0.007100

*CONN
*I *173:IN1 I *L 0.0039 *D MU2HDX0
*P *6 I

*CAP
1 *173:IN1 0.0071

*RES
1 *6 *173:IN1 9.009009009
*END

*D_NET *109 0.007100

*CONN
*I *158:D I *L 0.0040 *D AO22HDX0
*P *7 I

*CAP
1 *158:D 0.0071

*RES
1 *7 *158:D 8.928571429
*END

*D_NET *110 0.007100

*CONN
*I *158:A I *L 0.0036 *D AO22HDX0
*P *8 I

*CAP
1 *158:A 0.0071

*RES
1 *8 *158:A 9.259259259
*END

*D_NET *111 0.007100

*CONN
*I *171:C I *L 0.0054 *D NA3I2HDX1
*P *9 I

*CAP
1 *171:C 0.0071

*RES
1 *9 *171:C 8
*END

*D_NET *112 0.007100

*CONN
*I *173:IN0 I *L 0.0033 *D MU2HDX0
*P *10 I

*CAP
1 *173:IN0 0.0071

*RES
1 *10 *173:IN0 9.523809524
*END

*D_NET *113 0.007100

*CONN
*I *152:D I *L 0.0071 *D AN22HDX1
*P *11 I

*CAP
1 *152:D 0.0071

*RES
1 *11 *152:D 7.092198582
*END

*D_NET *114 0.007100

*CONN
*I *150:B I *L 0.0070 *D NA22HDX1
*P *12 I

*CAP
1 *150:B 0.0071

*RES
1 *12 *150:B 7.042253521
*END

*D_NET *115 0.007100

*CONN
*I *128:E I *L 0.0033 *D LSGCPHDX0
*I *135:Q O *L 0.0001 *D ON32HDX0

*CAP
1 *128:E 0.0071

*RES
1 *135:Q *128:E 9.615384615
*END

*D_NET *116 0.007100

*CONN
*I *129:E I *L 0.0033 *D LSGCPHDX0
*I *142:Q O *L 0.0001 *D AO211HDX0

*CAP
1 *129:E 0.0071

*RES
1 *142:Q *129:E 9.615384615
*END

*D_NET *117 0.000000

*CONN
*I *201:C I *L 0.0044 *D DFRRHDX1
*I *200:C I *L 0.0044 *D DFRRHDX1
*I *198:C I *L 0.0044 *D DFRRHDX1
*I *197:C I *L 0.0044 *D DFRRHDX1
*I *176:B I *L 0.0055 *D NA2HDX1
*I *129:CLK I *L 0.0081 *D LSGCPHDX0
*I *128:CLK I *L 0.0081 *D LSGCPHDX0
*P *1 I

*CAP
1 *201:C 0
2 *200:C 0
3 *198:C 0
4 *197:C 0
5 *176:B 0
6 *129:CLK 0
7 *128:CLK 0

*RES
1 *1 *201:C 0
2 *1 *200:C 0
3 *1 *198:C 0
4 *1 *197:C 0
5 *1 *176:B 0
6 *1 *129:CLK 0
7 *1 *128:CLK 0
*END

*D_NET *118 0.014000

*CONN
*I *148:A I *L 0.0040 *D ON211HDX0
*I *162:B I *L 0.0055 *D NA2I1HDX1
*I *147:B I *L 0.0062 *D AN21HDX1
*P *5 I

*CAP
1 *148:A 0.0046
2 *162:B 0.0047
3 *147:B 0.0047

*RES
1 *5 *148:A 0
2 *5 *162:B 9.803921569
3 *5 *147:B 9.345794393
*END

*D_NET *119 0.007100

*CONN
*I *169:C I *L 0.0053 *D NA3I1HDX1
*P *4 I

*CAP
1 *169:C 0.0071

*RES
1 *4 *169:C 8.064516129
*END

*D_NET *120 0.007100

*CONN
*I *155:B I *L 0.0063 *D ON21HDX1
*P *3 I

*CAP
1 *155:B 0.0071

*RES
1 *3 *155:B 7.518796992
*END

*D_NET *121 0.007100

*CONN
*I *196:A I *L 0.0063 *D INHDX1
*I *130:C I *L 0.0042 *D NO22HDX0
*P *2 I

*CAP
1 *196:A 0.0035
2 *130:C 0.0036

*RES
1 *2 *196:A 0
2 *2 *130:C 12.82051282
*END

*D_NET *122 0.007100

*CONN
*I *189:D I *L 0.0034 *D DFRQHDX1
*I *202:Q O *L 0.0001 *D NA3I1HDX1

*CAP
1 *189:D 0.0071

*RES
1 *202:Q *189:D 9.523809524
*END

*D_NET *123 0.007100

*CONN
*I *128:SE I *L 0.0033 *D LSGCPHDX0
*I *203:Q O *L 0.0001 *D LOGIC0HD

*CAP
1 *128:SE 0.0071

*RES
1 *203:Q *128:SE 9.708737864
*END

*D_NET *124 0.007100

*CONN
*I *129:SE I *L 0.0033 *D LSGCPHDX0
*I *204:Q O *L 0.0001 *D LOGIC0HD

*CAP
1 *129:SE 0.0071

*RES
1 *204:Q *129:SE 9.708737864
*END

*D_NET *125 0.007100

*CONN
*I *137:D I *L 0.0033 *D AN321HDX0
*I *205:Q O *L 0.0001 *D BUHDX1

*CAP
1 *137:D 0.0071

*RES
1 *205:Q *137:D 9.615384615
*END

*D_NET *126 0.007100

*CONN
*I *161:D I *L 0.0042 *D AO32HDX1
*I *206:Q O *L 0.0001 *D BUHDX1

*CAP
1 *161:D 0.0071

*RES
1 *206:Q *161:D 8.849557522
*END

*D_NET *127 0.007100

*CONN
*I *161:A I *L 0.0040 *D AO32HDX1
*I *207:Q O *L 0.0001 *D BUHDX1

*CAP
1 *161:A 0.0071

*RES
1 *207:Q *161:A 8.928571429
*END
